[root]
type=Root
children=system
eventq_index=0
full_system=false
sim_quantum=0
time_sync_enable=false
time_sync_period=100000000000
time_sync_spin_threshold=100000000

[system]
type=System
children=clk_domain cpu00 cpu01 cpu02 cpu03 cpu04 cpu05 cpu06 cpu07 cpu08 cpu09 cpu10 cpu11 cpu12 cpu13 cpu14 cpu15 cpu16 cpu17 cpu18 cpu19 cpu20 cpu21 cpu22 cpu23 cpu24 cpu25 cpu26 cpu27 cpu28 cpu29 cpu30 cpu31 cpu_clk_domain cpu_voltage_domain dvfs_handler mem_ctrls membus voltage_domain
boot_osflags=a
cache_line_size=64
clk_domain=system.clk_domain
eventq_index=0
init_param=0
kernel=
kernel_addr_check=true
load_addr_mask=1099511627775
load_offset=0
mem_mode=atomic
mem_ranges=0:536870911
memories=system.mem_ctrls
mmap_using_noreserve=false
num_work_ids=16
readfile=
symbolfile=
work_begin_ckpt_count=0
work_begin_cpu_id_exit=-1
work_begin_exit_count=0
work_cpus_ckpt_count=0
work_end_ckpt_count=0
work_end_exit_count=0
work_item_id=-1
system_port=system.membus.slave[0]

[system.clk_domain]
type=SrcClockDomain
clock=1000
domain_id=-1
eventq_index=0
init_perf_level=0
voltage_domain=system.voltage_domain

[system.cpu00]
type=AtomicSimpleCPU
children=dstage2_mmu dtb interrupts isa istage2_mmu itb tracer workload
branchPred=Null
checker=Null
clk_domain=system.cpu_clk_domain
cpu_id=0
do_checkpoint_insts=true
do_quiesce=true
do_statistics_insts=true
dstage2_mmu=system.cpu00.dstage2_mmu
dtb=system.cpu00.dtb
eventq_index=0
fastmem=false
function_trace=false
function_trace_start=0
interrupts=system.cpu00.interrupts
isa=system.cpu00.isa
istage2_mmu=system.cpu00.istage2_mmu
itb=system.cpu00.itb
max_insts_all_threads=0
max_insts_any_thread=0
max_loads_all_threads=0
max_loads_any_thread=0
numThreads=1
profile=0
progress_interval=0
simpoint_start_insts=
simulate_data_stalls=false
simulate_inst_stalls=false
socket_id=0
switched_out=false
system=system
tracer=system.cpu00.tracer
width=1
workload=system.cpu00.workload
dcache_port=system.membus.slave[2]
icache_port=system.membus.slave[1]

[system.cpu00.dstage2_mmu]
type=ArmStage2MMU
children=stage2_tlb
eventq_index=0
stage2_tlb=system.cpu00.dstage2_mmu.stage2_tlb
sys=system
tlb=system.cpu00.dtb

[system.cpu00.dstage2_mmu.stage2_tlb]
type=ArmTLB
children=walker
eventq_index=0
is_stage2=true
size=32
walker=system.cpu00.dstage2_mmu.stage2_tlb.walker

[system.cpu00.dstage2_mmu.stage2_tlb.walker]
type=ArmTableWalker
clk_domain=system.cpu_clk_domain
eventq_index=0
is_stage2=true
num_squash_per_cycle=2
sys=system

[system.cpu00.dtb]
type=ArmTLB
children=walker
eventq_index=0
is_stage2=false
size=64
walker=system.cpu00.dtb.walker

[system.cpu00.dtb.walker]
type=ArmTableWalker
clk_domain=system.cpu_clk_domain
eventq_index=0
is_stage2=false
num_squash_per_cycle=2
sys=system
port=system.membus.slave[4]

[system.cpu00.interrupts]
type=ArmInterrupts
eventq_index=0

[system.cpu00.isa]
type=ArmISA
eventq_index=0
fpsid=1090793632
id_aa64afr0_el1=0
id_aa64afr1_el1=0
id_aa64dfr0_el1=1052678
id_aa64dfr1_el1=0
id_aa64isar0_el1=0
id_aa64isar1_el1=0
id_aa64mmfr0_el1=15728642
id_aa64mmfr1_el1=0
id_aa64pfr0_el1=17
id_aa64pfr1_el1=0
id_isar0=34607377
id_isar1=34677009
id_isar2=555950401
id_isar3=17899825
id_isar4=268501314
id_isar5=0
id_mmfr0=270536963
id_mmfr1=0
id_mmfr2=19070976
id_mmfr3=34611729
id_pfr0=49
id_pfr1=4113
midr=1091551472
pmu=Null
system=system

[system.cpu00.istage2_mmu]
type=ArmStage2MMU
children=stage2_tlb
eventq_index=0
stage2_tlb=system.cpu00.istage2_mmu.stage2_tlb
sys=system
tlb=system.cpu00.itb

[system.cpu00.istage2_mmu.stage2_tlb]
type=ArmTLB
children=walker
eventq_index=0
is_stage2=true
size=32
walker=system.cpu00.istage2_mmu.stage2_tlb.walker

[system.cpu00.istage2_mmu.stage2_tlb.walker]
type=ArmTableWalker
clk_domain=system.cpu_clk_domain
eventq_index=0
is_stage2=true
num_squash_per_cycle=2
sys=system

[system.cpu00.itb]
type=ArmTLB
children=walker
eventq_index=0
is_stage2=false
size=64
walker=system.cpu00.itb.walker

[system.cpu00.itb.walker]
type=ArmTableWalker
clk_domain=system.cpu_clk_domain
eventq_index=0
is_stage2=false
num_squash_per_cycle=2
sys=system
port=system.membus.slave[3]

[system.cpu00.tracer]
type=ExeTracer
eventq_index=0

[system.cpu00.workload]
type=LiveProcess
cmd=/auto/g/gbusnot/ES201/tools/TP5/gem5-stable/../test_omp 32 64
cwd=/auto/m/meneses/es201-tp5/cmp-speedup-ipc-analysis
drivers=
egid=100
env=
errout=cerr
euid=100
eventq_index=0
executable=/auto/g/gbusnot/ES201/tools/TP5/gem5-stable/../test_omp
gid=100
input=cin
kvmInSE=false
max_stack_size=67108864
output=cout
pid=100
ppid=99
simpoint=0
system=system
uid=100
useArchPT=false

[system.cpu01]
type=AtomicSimpleCPU
children=dstage2_mmu dtb interrupts isa istage2_mmu itb tracer
branchPred=Null
checker=Null
clk_domain=system.cpu_clk_domain
cpu_id=1
do_checkpoint_insts=true
do_quiesce=true
do_statistics_insts=true
dstage2_mmu=system.cpu01.dstage2_mmu
dtb=system.cpu01.dtb
eventq_index=0
fastmem=false
function_trace=false
function_trace_start=0
interrupts=system.cpu01.interrupts
isa=system.cpu01.isa
istage2_mmu=system.cpu01.istage2_mmu
itb=system.cpu01.itb
max_insts_all_threads=0
max_insts_any_thread=0
max_loads_all_threads=0
max_loads_any_thread=0
numThreads=1
profile=0
progress_interval=0
simpoint_start_insts=
simulate_data_stalls=false
simulate_inst_stalls=false
socket_id=0
switched_out=false
system=system
tracer=system.cpu01.tracer
width=1
workload=system.cpu00.workload
dcache_port=system.membus.slave[6]
icache_port=system.membus.slave[5]

[system.cpu01.dstage2_mmu]
type=ArmStage2MMU
children=stage2_tlb
eventq_index=0
stage2_tlb=system.cpu01.dstage2_mmu.stage2_tlb
sys=system
tlb=system.cpu01.dtb

[system.cpu01.dstage2_mmu.stage2_tlb]
type=ArmTLB
children=walker
eventq_index=0
is_stage2=true
size=32
walker=system.cpu01.dstage2_mmu.stage2_tlb.walker

[system.cpu01.dstage2_mmu.stage2_tlb.walker]
type=ArmTableWalker
clk_domain=system.cpu_clk_domain
eventq_index=0
is_stage2=true
num_squash_per_cycle=2
sys=system

[system.cpu01.dtb]
type=ArmTLB
children=walker
eventq_index=0
is_stage2=false
size=64
walker=system.cpu01.dtb.walker

[system.cpu01.dtb.walker]
type=ArmTableWalker
clk_domain=system.cpu_clk_domain
eventq_index=0
is_stage2=false
num_squash_per_cycle=2
sys=system
port=system.membus.slave[8]

[system.cpu01.interrupts]
type=ArmInterrupts
eventq_index=0

[system.cpu01.isa]
type=ArmISA
eventq_index=0
fpsid=1090793632
id_aa64afr0_el1=0
id_aa64afr1_el1=0
id_aa64dfr0_el1=1052678
id_aa64dfr1_el1=0
id_aa64isar0_el1=0
id_aa64isar1_el1=0
id_aa64mmfr0_el1=15728642
id_aa64mmfr1_el1=0
id_aa64pfr0_el1=17
id_aa64pfr1_el1=0
id_isar0=34607377
id_isar1=34677009
id_isar2=555950401
id_isar3=17899825
id_isar4=268501314
id_isar5=0
id_mmfr0=270536963
id_mmfr1=0
id_mmfr2=19070976
id_mmfr3=34611729
id_pfr0=49
id_pfr1=4113
midr=1091551472
pmu=Null
system=system

[system.cpu01.istage2_mmu]
type=ArmStage2MMU
children=stage2_tlb
eventq_index=0
stage2_tlb=system.cpu01.istage2_mmu.stage2_tlb
sys=system
tlb=system.cpu01.itb

[system.cpu01.istage2_mmu.stage2_tlb]
type=ArmTLB
children=walker
eventq_index=0
is_stage2=true
size=32
walker=system.cpu01.istage2_mmu.stage2_tlb.walker

[system.cpu01.istage2_mmu.stage2_tlb.walker]
type=ArmTableWalker
clk_domain=system.cpu_clk_domain
eventq_index=0
is_stage2=true
num_squash_per_cycle=2
sys=system

[system.cpu01.itb]
type=ArmTLB
children=walker
eventq_index=0
is_stage2=false
size=64
walker=system.cpu01.itb.walker

[system.cpu01.itb.walker]
type=ArmTableWalker
clk_domain=system.cpu_clk_domain
eventq_index=0
is_stage2=false
num_squash_per_cycle=2
sys=system
port=system.membus.slave[7]

[system.cpu01.tracer]
type=ExeTracer
eventq_index=0

[system.cpu02]
type=AtomicSimpleCPU
children=dstage2_mmu dtb interrupts isa istage2_mmu itb tracer
branchPred=Null
checker=Null
clk_domain=system.cpu_clk_domain
cpu_id=2
do_checkpoint_insts=true
do_quiesce=true
do_statistics_insts=true
dstage2_mmu=system.cpu02.dstage2_mmu
dtb=system.cpu02.dtb
eventq_index=0
fastmem=false
function_trace=false
function_trace_start=0
interrupts=system.cpu02.interrupts
isa=system.cpu02.isa
istage2_mmu=system.cpu02.istage2_mmu
itb=system.cpu02.itb
max_insts_all_threads=0
max_insts_any_thread=0
max_loads_all_threads=0
max_loads_any_thread=0
numThreads=1
profile=0
progress_interval=0
simpoint_start_insts=
simulate_data_stalls=false
simulate_inst_stalls=false
socket_id=0
switched_out=false
system=system
tracer=system.cpu02.tracer
width=1
workload=system.cpu00.workload
dcache_port=system.membus.slave[10]
icache_port=system.membus.slave[9]

[system.cpu02.dstage2_mmu]
type=ArmStage2MMU
children=stage2_tlb
eventq_index=0
stage2_tlb=system.cpu02.dstage2_mmu.stage2_tlb
sys=system
tlb=system.cpu02.dtb

[system.cpu02.dstage2_mmu.stage2_tlb]
type=ArmTLB
children=walker
eventq_index=0
is_stage2=true
size=32
walker=system.cpu02.dstage2_mmu.stage2_tlb.walker

[system.cpu02.dstage2_mmu.stage2_tlb.walker]
type=ArmTableWalker
clk_domain=system.cpu_clk_domain
eventq_index=0
is_stage2=true
num_squash_per_cycle=2
sys=system

[system.cpu02.dtb]
type=ArmTLB
children=walker
eventq_index=0
is_stage2=false
size=64
walker=system.cpu02.dtb.walker

[system.cpu02.dtb.walker]
type=ArmTableWalker
clk_domain=system.cpu_clk_domain
eventq_index=0
is_stage2=false
num_squash_per_cycle=2
sys=system
port=system.membus.slave[12]

[system.cpu02.interrupts]
type=ArmInterrupts
eventq_index=0

[system.cpu02.isa]
type=ArmISA
eventq_index=0
fpsid=1090793632
id_aa64afr0_el1=0
id_aa64afr1_el1=0
id_aa64dfr0_el1=1052678
id_aa64dfr1_el1=0
id_aa64isar0_el1=0
id_aa64isar1_el1=0
id_aa64mmfr0_el1=15728642
id_aa64mmfr1_el1=0
id_aa64pfr0_el1=17
id_aa64pfr1_el1=0
id_isar0=34607377
id_isar1=34677009
id_isar2=555950401
id_isar3=17899825
id_isar4=268501314
id_isar5=0
id_mmfr0=270536963
id_mmfr1=0
id_mmfr2=19070976
id_mmfr3=34611729
id_pfr0=49
id_pfr1=4113
midr=1091551472
pmu=Null
system=system

[system.cpu02.istage2_mmu]
type=ArmStage2MMU
children=stage2_tlb
eventq_index=0
stage2_tlb=system.cpu02.istage2_mmu.stage2_tlb
sys=system
tlb=system.cpu02.itb

[system.cpu02.istage2_mmu.stage2_tlb]
type=ArmTLB
children=walker
eventq_index=0
is_stage2=true
size=32
walker=system.cpu02.istage2_mmu.stage2_tlb.walker

[system.cpu02.istage2_mmu.stage2_tlb.walker]
type=ArmTableWalker
clk_domain=system.cpu_clk_domain
eventq_index=0
is_stage2=true
num_squash_per_cycle=2
sys=system

[system.cpu02.itb]
type=ArmTLB
children=walker
eventq_index=0
is_stage2=false
size=64
walker=system.cpu02.itb.walker

[system.cpu02.itb.walker]
type=ArmTableWalker
clk_domain=system.cpu_clk_domain
eventq_index=0
is_stage2=false
num_squash_per_cycle=2
sys=system
port=system.membus.slave[11]

[system.cpu02.tracer]
type=ExeTracer
eventq_index=0

[system.cpu03]
type=AtomicSimpleCPU
children=dstage2_mmu dtb interrupts isa istage2_mmu itb tracer
branchPred=Null
checker=Null
clk_domain=system.cpu_clk_domain
cpu_id=3
do_checkpoint_insts=true
do_quiesce=true
do_statistics_insts=true
dstage2_mmu=system.cpu03.dstage2_mmu
dtb=system.cpu03.dtb
eventq_index=0
fastmem=false
function_trace=false
function_trace_start=0
interrupts=system.cpu03.interrupts
isa=system.cpu03.isa
istage2_mmu=system.cpu03.istage2_mmu
itb=system.cpu03.itb
max_insts_all_threads=0
max_insts_any_thread=0
max_loads_all_threads=0
max_loads_any_thread=0
numThreads=1
profile=0
progress_interval=0
simpoint_start_insts=
simulate_data_stalls=false
simulate_inst_stalls=false
socket_id=0
switched_out=false
system=system
tracer=system.cpu03.tracer
width=1
workload=system.cpu00.workload
dcache_port=system.membus.slave[14]
icache_port=system.membus.slave[13]

[system.cpu03.dstage2_mmu]
type=ArmStage2MMU
children=stage2_tlb
eventq_index=0
stage2_tlb=system.cpu03.dstage2_mmu.stage2_tlb
sys=system
tlb=system.cpu03.dtb

[system.cpu03.dstage2_mmu.stage2_tlb]
type=ArmTLB
children=walker
eventq_index=0
is_stage2=true
size=32
walker=system.cpu03.dstage2_mmu.stage2_tlb.walker

[system.cpu03.dstage2_mmu.stage2_tlb.walker]
type=ArmTableWalker
clk_domain=system.cpu_clk_domain
eventq_index=0
is_stage2=true
num_squash_per_cycle=2
sys=system

[system.cpu03.dtb]
type=ArmTLB
children=walker
eventq_index=0
is_stage2=false
size=64
walker=system.cpu03.dtb.walker

[system.cpu03.dtb.walker]
type=ArmTableWalker
clk_domain=system.cpu_clk_domain
eventq_index=0
is_stage2=false
num_squash_per_cycle=2
sys=system
port=system.membus.slave[16]

[system.cpu03.interrupts]
type=ArmInterrupts
eventq_index=0

[system.cpu03.isa]
type=ArmISA
eventq_index=0
fpsid=1090793632
id_aa64afr0_el1=0
id_aa64afr1_el1=0
id_aa64dfr0_el1=1052678
id_aa64dfr1_el1=0
id_aa64isar0_el1=0
id_aa64isar1_el1=0
id_aa64mmfr0_el1=15728642
id_aa64mmfr1_el1=0
id_aa64pfr0_el1=17
id_aa64pfr1_el1=0
id_isar0=34607377
id_isar1=34677009
id_isar2=555950401
id_isar3=17899825
id_isar4=268501314
id_isar5=0
id_mmfr0=270536963
id_mmfr1=0
id_mmfr2=19070976
id_mmfr3=34611729
id_pfr0=49
id_pfr1=4113
midr=1091551472
pmu=Null
system=system

[system.cpu03.istage2_mmu]
type=ArmStage2MMU
children=stage2_tlb
eventq_index=0
stage2_tlb=system.cpu03.istage2_mmu.stage2_tlb
sys=system
tlb=system.cpu03.itb

[system.cpu03.istage2_mmu.stage2_tlb]
type=ArmTLB
children=walker
eventq_index=0
is_stage2=true
size=32
walker=system.cpu03.istage2_mmu.stage2_tlb.walker

[system.cpu03.istage2_mmu.stage2_tlb.walker]
type=ArmTableWalker
clk_domain=system.cpu_clk_domain
eventq_index=0
is_stage2=true
num_squash_per_cycle=2
sys=system

[system.cpu03.itb]
type=ArmTLB
children=walker
eventq_index=0
is_stage2=false
size=64
walker=system.cpu03.itb.walker

[system.cpu03.itb.walker]
type=ArmTableWalker
clk_domain=system.cpu_clk_domain
eventq_index=0
is_stage2=false
num_squash_per_cycle=2
sys=system
port=system.membus.slave[15]

[system.cpu03.tracer]
type=ExeTracer
eventq_index=0

[system.cpu04]
type=AtomicSimpleCPU
children=dstage2_mmu dtb interrupts isa istage2_mmu itb tracer
branchPred=Null
checker=Null
clk_domain=system.cpu_clk_domain
cpu_id=4
do_checkpoint_insts=true
do_quiesce=true
do_statistics_insts=true
dstage2_mmu=system.cpu04.dstage2_mmu
dtb=system.cpu04.dtb
eventq_index=0
fastmem=false
function_trace=false
function_trace_start=0
interrupts=system.cpu04.interrupts
isa=system.cpu04.isa
istage2_mmu=system.cpu04.istage2_mmu
itb=system.cpu04.itb
max_insts_all_threads=0
max_insts_any_thread=0
max_loads_all_threads=0
max_loads_any_thread=0
numThreads=1
profile=0
progress_interval=0
simpoint_start_insts=
simulate_data_stalls=false
simulate_inst_stalls=false
socket_id=0
switched_out=false
system=system
tracer=system.cpu04.tracer
width=1
workload=system.cpu00.workload
dcache_port=system.membus.slave[18]
icache_port=system.membus.slave[17]

[system.cpu04.dstage2_mmu]
type=ArmStage2MMU
children=stage2_tlb
eventq_index=0
stage2_tlb=system.cpu04.dstage2_mmu.stage2_tlb
sys=system
tlb=system.cpu04.dtb

[system.cpu04.dstage2_mmu.stage2_tlb]
type=ArmTLB
children=walker
eventq_index=0
is_stage2=true
size=32
walker=system.cpu04.dstage2_mmu.stage2_tlb.walker

[system.cpu04.dstage2_mmu.stage2_tlb.walker]
type=ArmTableWalker
clk_domain=system.cpu_clk_domain
eventq_index=0
is_stage2=true
num_squash_per_cycle=2
sys=system

[system.cpu04.dtb]
type=ArmTLB
children=walker
eventq_index=0
is_stage2=false
size=64
walker=system.cpu04.dtb.walker

[system.cpu04.dtb.walker]
type=ArmTableWalker
clk_domain=system.cpu_clk_domain
eventq_index=0
is_stage2=false
num_squash_per_cycle=2
sys=system
port=system.membus.slave[20]

[system.cpu04.interrupts]
type=ArmInterrupts
eventq_index=0

[system.cpu04.isa]
type=ArmISA
eventq_index=0
fpsid=1090793632
id_aa64afr0_el1=0
id_aa64afr1_el1=0
id_aa64dfr0_el1=1052678
id_aa64dfr1_el1=0
id_aa64isar0_el1=0
id_aa64isar1_el1=0
id_aa64mmfr0_el1=15728642
id_aa64mmfr1_el1=0
id_aa64pfr0_el1=17
id_aa64pfr1_el1=0
id_isar0=34607377
id_isar1=34677009
id_isar2=555950401
id_isar3=17899825
id_isar4=268501314
id_isar5=0
id_mmfr0=270536963
id_mmfr1=0
id_mmfr2=19070976
id_mmfr3=34611729
id_pfr0=49
id_pfr1=4113
midr=1091551472
pmu=Null
system=system

[system.cpu04.istage2_mmu]
type=ArmStage2MMU
children=stage2_tlb
eventq_index=0
stage2_tlb=system.cpu04.istage2_mmu.stage2_tlb
sys=system
tlb=system.cpu04.itb

[system.cpu04.istage2_mmu.stage2_tlb]
type=ArmTLB
children=walker
eventq_index=0
is_stage2=true
size=32
walker=system.cpu04.istage2_mmu.stage2_tlb.walker

[system.cpu04.istage2_mmu.stage2_tlb.walker]
type=ArmTableWalker
clk_domain=system.cpu_clk_domain
eventq_index=0
is_stage2=true
num_squash_per_cycle=2
sys=system

[system.cpu04.itb]
type=ArmTLB
children=walker
eventq_index=0
is_stage2=false
size=64
walker=system.cpu04.itb.walker

[system.cpu04.itb.walker]
type=ArmTableWalker
clk_domain=system.cpu_clk_domain
eventq_index=0
is_stage2=false
num_squash_per_cycle=2
sys=system
port=system.membus.slave[19]

[system.cpu04.tracer]
type=ExeTracer
eventq_index=0

[system.cpu05]
type=AtomicSimpleCPU
children=dstage2_mmu dtb interrupts isa istage2_mmu itb tracer
branchPred=Null
checker=Null
clk_domain=system.cpu_clk_domain
cpu_id=5
do_checkpoint_insts=true
do_quiesce=true
do_statistics_insts=true
dstage2_mmu=system.cpu05.dstage2_mmu
dtb=system.cpu05.dtb
eventq_index=0
fastmem=false
function_trace=false
function_trace_start=0
interrupts=system.cpu05.interrupts
isa=system.cpu05.isa
istage2_mmu=system.cpu05.istage2_mmu
itb=system.cpu05.itb
max_insts_all_threads=0
max_insts_any_thread=0
max_loads_all_threads=0
max_loads_any_thread=0
numThreads=1
profile=0
progress_interval=0
simpoint_start_insts=
simulate_data_stalls=false
simulate_inst_stalls=false
socket_id=0
switched_out=false
system=system
tracer=system.cpu05.tracer
width=1
workload=system.cpu00.workload
dcache_port=system.membus.slave[22]
icache_port=system.membus.slave[21]

[system.cpu05.dstage2_mmu]
type=ArmStage2MMU
children=stage2_tlb
eventq_index=0
stage2_tlb=system.cpu05.dstage2_mmu.stage2_tlb
sys=system
tlb=system.cpu05.dtb

[system.cpu05.dstage2_mmu.stage2_tlb]
type=ArmTLB
children=walker
eventq_index=0
is_stage2=true
size=32
walker=system.cpu05.dstage2_mmu.stage2_tlb.walker

[system.cpu05.dstage2_mmu.stage2_tlb.walker]
type=ArmTableWalker
clk_domain=system.cpu_clk_domain
eventq_index=0
is_stage2=true
num_squash_per_cycle=2
sys=system

[system.cpu05.dtb]
type=ArmTLB
children=walker
eventq_index=0
is_stage2=false
size=64
walker=system.cpu05.dtb.walker

[system.cpu05.dtb.walker]
type=ArmTableWalker
clk_domain=system.cpu_clk_domain
eventq_index=0
is_stage2=false
num_squash_per_cycle=2
sys=system
port=system.membus.slave[24]

[system.cpu05.interrupts]
type=ArmInterrupts
eventq_index=0

[system.cpu05.isa]
type=ArmISA
eventq_index=0
fpsid=1090793632
id_aa64afr0_el1=0
id_aa64afr1_el1=0
id_aa64dfr0_el1=1052678
id_aa64dfr1_el1=0
id_aa64isar0_el1=0
id_aa64isar1_el1=0
id_aa64mmfr0_el1=15728642
id_aa64mmfr1_el1=0
id_aa64pfr0_el1=17
id_aa64pfr1_el1=0
id_isar0=34607377
id_isar1=34677009
id_isar2=555950401
id_isar3=17899825
id_isar4=268501314
id_isar5=0
id_mmfr0=270536963
id_mmfr1=0
id_mmfr2=19070976
id_mmfr3=34611729
id_pfr0=49
id_pfr1=4113
midr=1091551472
pmu=Null
system=system

[system.cpu05.istage2_mmu]
type=ArmStage2MMU
children=stage2_tlb
eventq_index=0
stage2_tlb=system.cpu05.istage2_mmu.stage2_tlb
sys=system
tlb=system.cpu05.itb

[system.cpu05.istage2_mmu.stage2_tlb]
type=ArmTLB
children=walker
eventq_index=0
is_stage2=true
size=32
walker=system.cpu05.istage2_mmu.stage2_tlb.walker

[system.cpu05.istage2_mmu.stage2_tlb.walker]
type=ArmTableWalker
clk_domain=system.cpu_clk_domain
eventq_index=0
is_stage2=true
num_squash_per_cycle=2
sys=system

[system.cpu05.itb]
type=ArmTLB
children=walker
eventq_index=0
is_stage2=false
size=64
walker=system.cpu05.itb.walker

[system.cpu05.itb.walker]
type=ArmTableWalker
clk_domain=system.cpu_clk_domain
eventq_index=0
is_stage2=false
num_squash_per_cycle=2
sys=system
port=system.membus.slave[23]

[system.cpu05.tracer]
type=ExeTracer
eventq_index=0

[system.cpu06]
type=AtomicSimpleCPU
children=dstage2_mmu dtb interrupts isa istage2_mmu itb tracer
branchPred=Null
checker=Null
clk_domain=system.cpu_clk_domain
cpu_id=6
do_checkpoint_insts=true
do_quiesce=true
do_statistics_insts=true
dstage2_mmu=system.cpu06.dstage2_mmu
dtb=system.cpu06.dtb
eventq_index=0
fastmem=false
function_trace=false
function_trace_start=0
interrupts=system.cpu06.interrupts
isa=system.cpu06.isa
istage2_mmu=system.cpu06.istage2_mmu
itb=system.cpu06.itb
max_insts_all_threads=0
max_insts_any_thread=0
max_loads_all_threads=0
max_loads_any_thread=0
numThreads=1
profile=0
progress_interval=0
simpoint_start_insts=
simulate_data_stalls=false
simulate_inst_stalls=false
socket_id=0
switched_out=false
system=system
tracer=system.cpu06.tracer
width=1
workload=system.cpu00.workload
dcache_port=system.membus.slave[26]
icache_port=system.membus.slave[25]

[system.cpu06.dstage2_mmu]
type=ArmStage2MMU
children=stage2_tlb
eventq_index=0
stage2_tlb=system.cpu06.dstage2_mmu.stage2_tlb
sys=system
tlb=system.cpu06.dtb

[system.cpu06.dstage2_mmu.stage2_tlb]
type=ArmTLB
children=walker
eventq_index=0
is_stage2=true
size=32
walker=system.cpu06.dstage2_mmu.stage2_tlb.walker

[system.cpu06.dstage2_mmu.stage2_tlb.walker]
type=ArmTableWalker
clk_domain=system.cpu_clk_domain
eventq_index=0
is_stage2=true
num_squash_per_cycle=2
sys=system

[system.cpu06.dtb]
type=ArmTLB
children=walker
eventq_index=0
is_stage2=false
size=64
walker=system.cpu06.dtb.walker

[system.cpu06.dtb.walker]
type=ArmTableWalker
clk_domain=system.cpu_clk_domain
eventq_index=0
is_stage2=false
num_squash_per_cycle=2
sys=system
port=system.membus.slave[28]

[system.cpu06.interrupts]
type=ArmInterrupts
eventq_index=0

[system.cpu06.isa]
type=ArmISA
eventq_index=0
fpsid=1090793632
id_aa64afr0_el1=0
id_aa64afr1_el1=0
id_aa64dfr0_el1=1052678
id_aa64dfr1_el1=0
id_aa64isar0_el1=0
id_aa64isar1_el1=0
id_aa64mmfr0_el1=15728642
id_aa64mmfr1_el1=0
id_aa64pfr0_el1=17
id_aa64pfr1_el1=0
id_isar0=34607377
id_isar1=34677009
id_isar2=555950401
id_isar3=17899825
id_isar4=268501314
id_isar5=0
id_mmfr0=270536963
id_mmfr1=0
id_mmfr2=19070976
id_mmfr3=34611729
id_pfr0=49
id_pfr1=4113
midr=1091551472
pmu=Null
system=system

[system.cpu06.istage2_mmu]
type=ArmStage2MMU
children=stage2_tlb
eventq_index=0
stage2_tlb=system.cpu06.istage2_mmu.stage2_tlb
sys=system
tlb=system.cpu06.itb

[system.cpu06.istage2_mmu.stage2_tlb]
type=ArmTLB
children=walker
eventq_index=0
is_stage2=true
size=32
walker=system.cpu06.istage2_mmu.stage2_tlb.walker

[system.cpu06.istage2_mmu.stage2_tlb.walker]
type=ArmTableWalker
clk_domain=system.cpu_clk_domain
eventq_index=0
is_stage2=true
num_squash_per_cycle=2
sys=system

[system.cpu06.itb]
type=ArmTLB
children=walker
eventq_index=0
is_stage2=false
size=64
walker=system.cpu06.itb.walker

[system.cpu06.itb.walker]
type=ArmTableWalker
clk_domain=system.cpu_clk_domain
eventq_index=0
is_stage2=false
num_squash_per_cycle=2
sys=system
port=system.membus.slave[27]

[system.cpu06.tracer]
type=ExeTracer
eventq_index=0

[system.cpu07]
type=AtomicSimpleCPU
children=dstage2_mmu dtb interrupts isa istage2_mmu itb tracer
branchPred=Null
checker=Null
clk_domain=system.cpu_clk_domain
cpu_id=7
do_checkpoint_insts=true
do_quiesce=true
do_statistics_insts=true
dstage2_mmu=system.cpu07.dstage2_mmu
dtb=system.cpu07.dtb
eventq_index=0
fastmem=false
function_trace=false
function_trace_start=0
interrupts=system.cpu07.interrupts
isa=system.cpu07.isa
istage2_mmu=system.cpu07.istage2_mmu
itb=system.cpu07.itb
max_insts_all_threads=0
max_insts_any_thread=0
max_loads_all_threads=0
max_loads_any_thread=0
numThreads=1
profile=0
progress_interval=0
simpoint_start_insts=
simulate_data_stalls=false
simulate_inst_stalls=false
socket_id=0
switched_out=false
system=system
tracer=system.cpu07.tracer
width=1
workload=system.cpu00.workload
dcache_port=system.membus.slave[30]
icache_port=system.membus.slave[29]

[system.cpu07.dstage2_mmu]
type=ArmStage2MMU
children=stage2_tlb
eventq_index=0
stage2_tlb=system.cpu07.dstage2_mmu.stage2_tlb
sys=system
tlb=system.cpu07.dtb

[system.cpu07.dstage2_mmu.stage2_tlb]
type=ArmTLB
children=walker
eventq_index=0
is_stage2=true
size=32
walker=system.cpu07.dstage2_mmu.stage2_tlb.walker

[system.cpu07.dstage2_mmu.stage2_tlb.walker]
type=ArmTableWalker
clk_domain=system.cpu_clk_domain
eventq_index=0
is_stage2=true
num_squash_per_cycle=2
sys=system

[system.cpu07.dtb]
type=ArmTLB
children=walker
eventq_index=0
is_stage2=false
size=64
walker=system.cpu07.dtb.walker

[system.cpu07.dtb.walker]
type=ArmTableWalker
clk_domain=system.cpu_clk_domain
eventq_index=0
is_stage2=false
num_squash_per_cycle=2
sys=system
port=system.membus.slave[32]

[system.cpu07.interrupts]
type=ArmInterrupts
eventq_index=0

[system.cpu07.isa]
type=ArmISA
eventq_index=0
fpsid=1090793632
id_aa64afr0_el1=0
id_aa64afr1_el1=0
id_aa64dfr0_el1=1052678
id_aa64dfr1_el1=0
id_aa64isar0_el1=0
id_aa64isar1_el1=0
id_aa64mmfr0_el1=15728642
id_aa64mmfr1_el1=0
id_aa64pfr0_el1=17
id_aa64pfr1_el1=0
id_isar0=34607377
id_isar1=34677009
id_isar2=555950401
id_isar3=17899825
id_isar4=268501314
id_isar5=0
id_mmfr0=270536963
id_mmfr1=0
id_mmfr2=19070976
id_mmfr3=34611729
id_pfr0=49
id_pfr1=4113
midr=1091551472
pmu=Null
system=system

[system.cpu07.istage2_mmu]
type=ArmStage2MMU
children=stage2_tlb
eventq_index=0
stage2_tlb=system.cpu07.istage2_mmu.stage2_tlb
sys=system
tlb=system.cpu07.itb

[system.cpu07.istage2_mmu.stage2_tlb]
type=ArmTLB
children=walker
eventq_index=0
is_stage2=true
size=32
walker=system.cpu07.istage2_mmu.stage2_tlb.walker

[system.cpu07.istage2_mmu.stage2_tlb.walker]
type=ArmTableWalker
clk_domain=system.cpu_clk_domain
eventq_index=0
is_stage2=true
num_squash_per_cycle=2
sys=system

[system.cpu07.itb]
type=ArmTLB
children=walker
eventq_index=0
is_stage2=false
size=64
walker=system.cpu07.itb.walker

[system.cpu07.itb.walker]
type=ArmTableWalker
clk_domain=system.cpu_clk_domain
eventq_index=0
is_stage2=false
num_squash_per_cycle=2
sys=system
port=system.membus.slave[31]

[system.cpu07.tracer]
type=ExeTracer
eventq_index=0

[system.cpu08]
type=AtomicSimpleCPU
children=dstage2_mmu dtb interrupts isa istage2_mmu itb tracer
branchPred=Null
checker=Null
clk_domain=system.cpu_clk_domain
cpu_id=8
do_checkpoint_insts=true
do_quiesce=true
do_statistics_insts=true
dstage2_mmu=system.cpu08.dstage2_mmu
dtb=system.cpu08.dtb
eventq_index=0
fastmem=false
function_trace=false
function_trace_start=0
interrupts=system.cpu08.interrupts
isa=system.cpu08.isa
istage2_mmu=system.cpu08.istage2_mmu
itb=system.cpu08.itb
max_insts_all_threads=0
max_insts_any_thread=0
max_loads_all_threads=0
max_loads_any_thread=0
numThreads=1
profile=0
progress_interval=0
simpoint_start_insts=
simulate_data_stalls=false
simulate_inst_stalls=false
socket_id=0
switched_out=false
system=system
tracer=system.cpu08.tracer
width=1
workload=system.cpu00.workload
dcache_port=system.membus.slave[34]
icache_port=system.membus.slave[33]

[system.cpu08.dstage2_mmu]
type=ArmStage2MMU
children=stage2_tlb
eventq_index=0
stage2_tlb=system.cpu08.dstage2_mmu.stage2_tlb
sys=system
tlb=system.cpu08.dtb

[system.cpu08.dstage2_mmu.stage2_tlb]
type=ArmTLB
children=walker
eventq_index=0
is_stage2=true
size=32
walker=system.cpu08.dstage2_mmu.stage2_tlb.walker

[system.cpu08.dstage2_mmu.stage2_tlb.walker]
type=ArmTableWalker
clk_domain=system.cpu_clk_domain
eventq_index=0
is_stage2=true
num_squash_per_cycle=2
sys=system

[system.cpu08.dtb]
type=ArmTLB
children=walker
eventq_index=0
is_stage2=false
size=64
walker=system.cpu08.dtb.walker

[system.cpu08.dtb.walker]
type=ArmTableWalker
clk_domain=system.cpu_clk_domain
eventq_index=0
is_stage2=false
num_squash_per_cycle=2
sys=system
port=system.membus.slave[36]

[system.cpu08.interrupts]
type=ArmInterrupts
eventq_index=0

[system.cpu08.isa]
type=ArmISA
eventq_index=0
fpsid=1090793632
id_aa64afr0_el1=0
id_aa64afr1_el1=0
id_aa64dfr0_el1=1052678
id_aa64dfr1_el1=0
id_aa64isar0_el1=0
id_aa64isar1_el1=0
id_aa64mmfr0_el1=15728642
id_aa64mmfr1_el1=0
id_aa64pfr0_el1=17
id_aa64pfr1_el1=0
id_isar0=34607377
id_isar1=34677009
id_isar2=555950401
id_isar3=17899825
id_isar4=268501314
id_isar5=0
id_mmfr0=270536963
id_mmfr1=0
id_mmfr2=19070976
id_mmfr3=34611729
id_pfr0=49
id_pfr1=4113
midr=1091551472
pmu=Null
system=system

[system.cpu08.istage2_mmu]
type=ArmStage2MMU
children=stage2_tlb
eventq_index=0
stage2_tlb=system.cpu08.istage2_mmu.stage2_tlb
sys=system
tlb=system.cpu08.itb

[system.cpu08.istage2_mmu.stage2_tlb]
type=ArmTLB
children=walker
eventq_index=0
is_stage2=true
size=32
walker=system.cpu08.istage2_mmu.stage2_tlb.walker

[system.cpu08.istage2_mmu.stage2_tlb.walker]
type=ArmTableWalker
clk_domain=system.cpu_clk_domain
eventq_index=0
is_stage2=true
num_squash_per_cycle=2
sys=system

[system.cpu08.itb]
type=ArmTLB
children=walker
eventq_index=0
is_stage2=false
size=64
walker=system.cpu08.itb.walker

[system.cpu08.itb.walker]
type=ArmTableWalker
clk_domain=system.cpu_clk_domain
eventq_index=0
is_stage2=false
num_squash_per_cycle=2
sys=system
port=system.membus.slave[35]

[system.cpu08.tracer]
type=ExeTracer
eventq_index=0

[system.cpu09]
type=AtomicSimpleCPU
children=dstage2_mmu dtb interrupts isa istage2_mmu itb tracer
branchPred=Null
checker=Null
clk_domain=system.cpu_clk_domain
cpu_id=9
do_checkpoint_insts=true
do_quiesce=true
do_statistics_insts=true
dstage2_mmu=system.cpu09.dstage2_mmu
dtb=system.cpu09.dtb
eventq_index=0
fastmem=false
function_trace=false
function_trace_start=0
interrupts=system.cpu09.interrupts
isa=system.cpu09.isa
istage2_mmu=system.cpu09.istage2_mmu
itb=system.cpu09.itb
max_insts_all_threads=0
max_insts_any_thread=0
max_loads_all_threads=0
max_loads_any_thread=0
numThreads=1
profile=0
progress_interval=0
simpoint_start_insts=
simulate_data_stalls=false
simulate_inst_stalls=false
socket_id=0
switched_out=false
system=system
tracer=system.cpu09.tracer
width=1
workload=system.cpu00.workload
dcache_port=system.membus.slave[38]
icache_port=system.membus.slave[37]

[system.cpu09.dstage2_mmu]
type=ArmStage2MMU
children=stage2_tlb
eventq_index=0
stage2_tlb=system.cpu09.dstage2_mmu.stage2_tlb
sys=system
tlb=system.cpu09.dtb

[system.cpu09.dstage2_mmu.stage2_tlb]
type=ArmTLB
children=walker
eventq_index=0
is_stage2=true
size=32
walker=system.cpu09.dstage2_mmu.stage2_tlb.walker

[system.cpu09.dstage2_mmu.stage2_tlb.walker]